software/pst_legacy/pstdat/data50m.m
% 50 Machine System Data
% This is a 50-machine system with 145 buses from IEEE
% The data has been modified to include full generator and control data
% Some em generator bus data has been modified to stabilize
% unrealistic instabilities

% Bus data format
% bus: number,voltage(pu),angle(degree),p_gen(pu),q_gen(pu),
%      p_load(pu), q_load(pu), conductance(pu), susceptance(pu),
%      bus_type - 1, swing bus
%               - 2, generator bus (PV bus)
%               - 3, load bus (PQ bus)
disp(' 50 generator, 145 bus test system')
bus=[ ...
   1.0000000e+00   1.0810000e+00  -4.3200000e+00   0.0000000e+00   0.0000000e+00   0.0000000e+00   0.0000000e+00   0.0000000e+00   0.0000000e+00   3.0000000e+00
   2.0000000e+00   1.0809000e+00  -4.3900000e+00   0.0000000e+00   0.0000000e+00   0.0000000e+00   0.0000000e+00   0.0000000e+00   0.0000000e+00   3.0000000e+00
   3.0000000e+00   1.1015000e+00  -4.0200000e+00   0.0000000e+00   0.0000000e+00   0.0000000e+00   0.0000000e+00   0.0000000e+00  -1.2600000e+00   3.0000000e+00
   4.0000000e+00   1.1015000e+00  -4.0200000e+00   0.0000000e+00   0.0000000e+00   0.0000000e+00   0.0000000e+00   0.0000000e+00  -1.2600000e+00   3.0000000e+00
   5.0000000e+00   1.1018000e+00  -4.0200000e+00   0.0000000e+00   0.0000000e+00   0.0000000e+00   0.0000000e+00   0.0000000e+00  -1.2600000e+00   3.0000000e+00
   6.0000000e+00   1.0433000e+00  -7.8400000e+00   0.0000000e+00   0.0000000e+00   0.0000000e+00   0.0000000e+00   0.0000000e+00   0.0000000e+00   3.0000000e+00
   7.0000000e+00   1.0763000e+00   3.2100000e+00   0.0000000e+00   0.0000000e+00   0.0000000e+00   0.0000000e+00   0.0000000e+00   0.0000000e+00   3.0000000e+00
   8.0000000e+00   1.1137000e+00   1.1500000e+00   0.0000000e+00   0.0000000e+00   0.0000000e+00   0.0000000e+00   0.0000000e+00   0.0000000e+00   3.0000000e+00
   9.0000000e+00   1.0396000e+00  -8.0500000e+00   0.0000000e+00   0.0000000e+00   0.0000000e+00   0.0000000e+00   0.0000000e+00   0.0000000e+00   3.0000000e+00
   1.0000000e+01   1.0396000e+00  -8.0500000e+00   0.0000000e+00   0.0000000e+00   0.0000000e+00   0.0000000e+00   0.0000000e+00   0.0000000e+00   3.0000000e+00
   1.1000000e+01   1.0937000e+00  -1.0660000e+01   0.0000000e+00   0.0000000e+00   0.0000000e+00   0.0000000e+00   0.0000000e+00   0.0000000e+00   3.0000000e+00
   1.2000000e+01   1.0389000e+00  -8.7700000e+00   0.0000000e+00   0.0000000e+00   0.0000000e+00   0.0000000e+00   0.0000000e+00   0.0000000e+00   3.0000000e+00
   1.3000000e+01   1.0982000e+00  -1.1430000e+01   0.0000000e+00   0.0000000e+00   0.0000000e+00   0.0000000e+00   0.0000000e+00   0.0000000e+00   3.0000000e+00
   1.4000000e+01   1.0385000e+00  -9.1800000e+00   0.0000000e+00   0.0000000e+00   0.0000000e+00   0.0000000e+00   0.0000000e+00   0.0000000e+00   3.0000000e+00
   1.5000000e+01   1.0683000e+00  -9.8100000e+00   0.0000000e+00   0.0000000e+00   0.0000000e+00   0.0000000e+00   0.0000000e+00  -1.2600000e+00   3.0000000e+00
   1.6000000e+01   1.0686000e+00  -9.8600000e+00   0.0000000e+00   0.0000000e+00   0.0000000e+00   0.0000000e+00   0.0000000e+00  -1.2600000e+00   3.0000000e+00
   1.7000000e+01   1.0012000e+00  -9.4400000e+00   0.0000000e+00   0.0000000e+00   0.0000000e+00   0.0000000e+00   0.0000000e+00  -2.5000000e+00   3.0000000e+00
   1.8000000e+01   1.0746000e+00  -1.0880000e+01   0.0000000e+00   0.0000000e+00   0.0000000e+00   0.0000000e+00   0.0000000e+00  -1.2600000e+00   3.0000000e+00
   1.9000000e+01   1.0708000e+00  -1.0960000e+01   0.0000000e+00   0.0000000e+00   0.0000000e+00   0.0000000e+00   0.0000000e+00  -5.8000000e-01   3.0000000e+00
   2.0000000e+01   1.1131000e+00  -1.0960000e+01   0.0000000e+00   0.0000000e+00   0.0000000e+00   0.0000000e+00   0.0000000e+00   0.0000000e+00   3.0000000e+00
   2.1000000e+01   1.1086000e+00  -1.1240000e+01   0.0000000e+00   0.0000000e+00   0.0000000e+00   0.0000000e+00   0.0000000e+00   0.0000000e+00   3.0000000e+00
   2.2000000e+01   1.0311000e+00  -3.8800000e+00   0.0000000e+00   0.0000000e+00   0.0000000e+00   0.0000000e+00   0.0000000e+00   0.0000000e+00   3.0000000e+00
   2.3000000e+01   1.0979000e+00  -5.5100000e+00   0.0000000e+00   0.0000000e+00   0.0000000e+00   0.0000000e+00   0.0000000e+00   0.0000000e+00   3.0000000e+00
   2.4000000e+01   1.0272000e+00   2.3000000e+00   0.0000000e+00   0.0000000e+00   0.0000000e+00   0.0000000e+00   0.0000000e+00   0.0000000e+00   3.0000000e+00
   2.5000000e+01   1.0380000e+00  -9.8700000e+00   0.0000000e+00   0.0000000e+00   0.0000000e+00   0.0000000e+00   0.0000000e+00   0.0000000e+00   3.0000000e+00
   2.6000000e+01   1.0894000e+00  -1.1370000e+01   0.0000000e+00   0.0000000e+00   0.0000000e+00   0.0000000e+00   0.0000000e+00   0.0000000e+00   3.0000000e+00
   2.7000000e+01   1.0389000e+00  -1.3070000e+01   0.0000000e+00   0.0000000e+00   0.0000000e+00   0.0000000e+00   0.0000000e+00   0.0000000e+00   3.0000000e+00
   2.8000000e+01   1.0762000e+00  -1.5280000e+01   0.0000000e+00   0.0000000e+00   0.0000000e+00   0.0000000e+00   0.0000000e+00  -1.2600000e+00   3.0000000e+00
   2.9000000e+01   1.0746000e+00  -1.5440000e+01   0.0000000e+00   0.0000000e+00   0.0000000e+00   0.0000000e+00   0.0000000e+00  -1.2600000e+00   3.0000000e+00
   3.0000000e+01   1.0731000e+00  -5.3500000e+00   0.0000000e+00   0.0000000e+00   0.0000000e+00   0.0000000e+00   0.0000000e+00   0.0000000e+00   3.0000000e+00
   3.1000000e+01   1.0905000e+00  -1.1810000e+01   0.0000000e+00   0.0000000e+00   0.0000000e+00   0.0000000e+00   0.0000000e+00   0.0000000e+00   3.0000000e+00
   3.2000000e+01   1.0937000e+00  -1.0660000e+01   0.0000000e+00   0.0000000e+00   0.0000000e+00   0.0000000e+00   0.0000000e+00   0.0000000e+00   3.0000000e+00
   3.3000000e+01   1.1392000e+00  -4.0600000e+00   0.0000000e+00   0.0000000e+00   0.0000000e+00   0.0000000e+00   0.0000000e+00   0.0000000e+00   3.0000000e+00
   3.4000000e+01   1.1387000e+00  -4.0000000e+00   0.0000000e+00   0.0000000e+00   4.5050000e-01   4.6560000e-01   0.0000000e+00   0.0000000e+00   3.0000000e+00
   3.5000000e+01   1.1390000e+00  -4.0800000e+00   0.0000000e+00   0.0000000e+00   4.9190000e-01   2.7530000e-01   0.0000000e+00   0.0000000e+00   3.0000000e+00
   3.6000000e+01   1.1385000e+00  -3.8200000e+00   0.0000000e+00   0.0000000e+00   0.0000000e+00   0.0000000e+00   0.0000000e+00   0.0000000e+00   3.0000000e+00
   3.7000000e+01   1.1235000e+00  -6.2300000e+00   0.0000000e+00   0.0000000e+00   0.0000000e+00   0.0000000e+00   0.0000000e+00   0.0000000e+00   3.0000000e+00
   3.8000000e+01   1.1306000e+00  -5.2900000e+00   0.0000000e+00   0.0000000e+00   0.0000000e+00   0.0000000e+00   0.0000000e+00   0.0000000e+00   3.0000000e+00
   3.9000000e+01   1.1270000e+00  -7.9200000e+00   0.0000000e+00   0.0000000e+00   0.0000000e+00   0.0000000e+00   0.0000000e+00   0.0000000e+00   3.0000000e+00
   4.0000000e+01   1.1269000e+00  -7.9200000e+00   0.0000000e+00   0.0000000e+00   0.0000000e+00   0.0000000e+00   0.0000000e+00   0.0000000e+00   3.0000000e+00
   4.1000000e+01   1.1188000e+00  -1.0430000e+01   0.0000000e+00   0.0000000e+00   0.0000000e+00   0.0000000e+00   5.4000000e-01  -1.0000000e-01   3.0000000e+00
   4.2000000e+01   1.1188000e+00  -1.0450000e+01   0.0000000e+00   0.0000000e+00   0.0000000e+00   0.0000000e+00   5.4800000e-01  -1.0000000e-01   3.0000000e+00
   4.3000000e+01   1.1189000e+00  -1.0400000e+01   0.0000000e+00   0.0000000e+00   0.0000000e+00   0.0000000e+00   0.0000000e+00   0.0000000e+00   3.0000000e+00
   4.4000000e+01   1.1189000e+00  -1.0420000e+01   0.0000000e+00   0.0000000e+00   0.0000000e+00   0.0000000e+00   0.0000000e+00   0.0000000e+00   3.0000000e+00
   4.5000000e+01   1.1173000e+00  -1.1410000e+01   0.0000000e+00   0.0000000e+00   0.0000000e+00   0.0000000e+00   0.0000000e+00   0.0000000e+00   3.0000000e+00
   4.6000000e+01   1.1173000e+00  -1.1410000e+01   0.0000000e+00   0.0000000e+00   0.0000000e+00   0.0000000e+00   0.0000000e+00   0.0000000e+00   3.0000000e+00
   4.7000000e+01   1.1275000e+00  -6.7300000e+00   0.0000000e+00   0.0000000e+00   0.0000000e+00   0.0000000e+00   1.5200000e-01   5.3700000e-02   3.0000000e+00
   4.8000000e+01   1.1278000e+00  -6.7100000e+00   0.0000000e+00   0.0000000e+00   0.0000000e+00   0.0000000e+00   1.3800000e-01   5.2000000e-02   3.0000000e+00
   4.9000000e+01   1.1279000e+00  -6.7000000e+00   0.0000000e+00   0.0000000e+00   0.0000000e+00   0.0000000e+00   0.0000000e+00   0.0000000e+00   3.0000000e+00
   5.0000000e+01   1.1276000e+00  -6.7200000e+00   0.0000000e+00   0.0000000e+00   0.0000000e+00   0.0000000e+00   0.0000000e+00   0.0000000e+00   3.0000000e+00
   5.1000000e+01   1.1124000e+00  -1.0160000e+01   0.0000000e+00   0.0000000e+00   5.8450000e-01   2.8440000e-01   0.0000000e+00   0.0000000e+00   3.0000000e+00
   5.2000000e+01   1.1118000e+00  -1.1130000e+01   0.0000000e+00   0.0000000e+00   0.0000000e+00   0.0000000e+00   2.3000000e-01  -9.7000000e-02   3.0000000e+00
   5.3000000e+01   1.1118000e+00  -1.1130000e+01   0.0000000e+00   0.0000000e+00   0.0000000e+00   0.0000000e+00   2.3200000e-01  -9.7000000e-02   3.0000000e+00
   5.4000000e+01   1.1131000e+00  -1.1790000e+01   0.0000000e+00   0.0000000e+00   0.0000000e+00   0.0000000e+00   1.8800000e-01  -9.3000000e-02   3.0000000e+00
   5.5000000e+01   1.1131000e+00  -1.1790000e+01   0.0000000e+00   0.0000000e+00   0.0000000e+00   0.0000000e+00   1.8700000e-01  -9.2000000e-02   3.0000000e+00
   5.6000000e+01   1.1072000e+00  -9.9400000e+00   0.0000000e+00   0.0000000e+00   0.0000000e+00   0.0000000e+00   1.8600000e-01  -7.5000000e-02   3.0000000e+00
   5.7000000e+01   1.1072000e+00  -9.9400000e+00   0.0000000e+00   0.0000000e+00   0.0000000e+00   0.0000000e+00   1.8800000e-01  -7.0000000e-02   3.0000000e+00
   5.8000000e+01   1.1067000e+00  -9.7600000e+00   0.0000000e+00   0.0000000e+00   7.6300000e-01  -1.0800000e-01   1.2100000e+00   1.4000000e+00   3.0000000e+00
   5.9000000e+01   1.1165000e+00  -1.0840000e+01   0.0000000e+00   0.0000000e+00   0.0000000e+00   0.0000000e+00   5.0800000e+00   8.6300000e-02   3.0000000e+00
   6.0000000e+01   1.1370000e+00  -6.3700000e+00   5.1000000e-01   3.2920000e-01   0.0000000e+00   0.0000000e+00   2.0100000e+00   1.6500000e+00   2.0000000e+00
   6.1000000e+01   1.1144000e+00  -1.1890000e+01   0.0000000e+00   0.0000000e+00   0.0000000e+00   0.0000000e+00   0.0000000e+00   1.4900000e+00   3.0000000e+00
   6.2000000e+01   1.0566000e+00  -1.4470000e+01   0.0000000e+00   0.0000000e+00   0.0000000e+00   0.0000000e+00   0.0000000e+00   0.0000000e+00   3.0000000e+00
   6.3000000e+01   1.1109000e+00  -1.3980000e+01   0.0000000e+00   0.0000000e+00   0.0000000e+00   0.0000000e+00   8.2300000e+00   5.2500000e+00   3.0000000e+00
   6.4000000e+01   1.0980000e+00  -9.2900000e+00   0.0000000e+00   0.0000000e+00   0.0000000e+00   0.0000000e+00   1.2300000e+00  -2.6000000e-01   3.0000000e+00
   6.5000000e+01   1.0980000e+00  -9.2900000e+00   0.0000000e+00   0.0000000e+00   0.0000000e+00   0.0000000e+00   1.2400000e+00  -2.6000000e-01   3.0000000e+00
   6.6000000e+01   1.1129000e+00   1.3200000e+00   0.0000000e+00   0.0000000e+00   1.0220000e+00   2.6700000e-01   2.1600000e+00   1.8970000e+01   3.0000000e+00
   6.7000000e+01   1.0900000e+00  -5.6600000e+00   1.4860000e+01   2.8520000e+00   0.0000000e+00   0.0000000e+00   1.8210000e+01   1.2800000e+01   2.0000000e+00
   6.8000000e+01   1.2086000e+00  -3.0990000e+01   0.0000000e+00   0.0000000e+00   0.0000000e+00  -7.4100000e-02   5.6300000e-01  -2.5000000e-01   3.0000000e+00
   6.9000000e+01   1.0968000e+00  -1.0420000e+01   0.0000000e+00   0.0000000e+00   0.0000000e+00   0.0000000e+00   9.7100000e+00  -1.4400000e+00   3.0000000e+00
   7.0000000e+01   9.9980000e-01  -1.4170000e+01   0.0000000e+00   0.0000000e+00   0.0000000e+00   5.6630000e-01   1.0300000e+00  -8.6000000e-01   3.0000000e+00
   7.1000000e+01   1.0275000e+00  -1.4260000e+01   0.0000000e+00   0.0000000e+00   0.0000000e+00  -2.1200000e-01   1.0600000e+00  -1.2200000e+00   3.0000000e+00
   7.2000000e+01   1.1007000e+00  -1.1190000e+01   0.0000000e+00   0.0000000e+00   0.0000000e+00   0.0000000e+00   1.0190000e+01   2.4600000e-01   3.0000000e+00
   7.3000000e+01   1.0975000e+00  -1.1060000e+01   0.0000000e+00   0.0000000e+00   0.0000000e+00   0.0000000e+00   1.2220000e+01   8.4100000e+00   3.0000000e+00
   7.4000000e+01   1.0973000e+00  -1.1460000e+01   0.0000000e+00   0.0000000e+00   8.1900000e-01   4.3700000e-01   8.5700000e+00   5.7400000e+00   3.0000000e+00
   7.5000000e+01   1.1179000e+00  -1.5190000e+01   0.0000000e+00   0.0000000e+00   0.0000000e+00   0.0000000e+00   3.8700000e+00   1.9900000e+00   3.0000000e+00
   7.6000000e+01   1.0209000e+00   5.5400000e+00   0.0000000e+00   0.0000000e+00   0.0000000e+00   0.0000000e+00  -6.6700000e+00  -1.8500000e+00   3.0000000e+00
   7.7000000e+01   9.8800000e-01   6.7200000e+00   0.0000000e+00   0.0000000e+00   0.0000000e+00   0.0000000e+00   0.0000000e+00  -1.2500000e+00   3.0000000e+00
   7.8000000e+01   1.0740000e+00  -5.1900000e+00   0.0000000e+00   0.0000000e+00   8.9000000e-01   2.6800000e-01   0.0000000e+00   0.0000000e+00   3.0000000e+00
   7.9000000e+01   1.0520000e+00  -9.5100000e+00   2.5020000e+00  -1.5950000e-01   9.1000000e-02   3.0000000e-02   2.3800000e+00   2.7100000e-01   2.0000000e+00
   8.0000000e+01   1.0690000e+00  -8.2100000e+00   4.7000000e-01  -1.5060000e-01   1.7100000e-01   5.0000000e-02  -8.0000000e-04   2.9900000e-01   2.0000000e+00
   8.1000000e+01   1.1304000e+00  -2.5860000e+01   0.0000000e+00   0.0000000e+00   8.2200000e-01  -9.3100000e-01   7.0000000e-01  -4.7000000e-01   3.0000000e+00
   8.2000000e+01   9.7500000e-01  -1.8660000e+01   7.0000000e-01   1.7150000e-01   2.1000000e-02   1.1000000e-02   1.1100000e+00  -2.8000000e-01   2.0000000e+00
   8.3000000e+01   1.0985000e+00  -5.3800000e+00   0.0000000e+00   0.0000000e+00   0.0000000e+00   0.0000000e+00   1.0500000e+00  -4.2000000e-03   3.0000000e+00
   8.4000000e+01   1.1156000e+00  -9.4400000e+00   0.0000000e+00   0.0000000e+00   2.4300000e-01   8.2000000e-02   0.0000000e+00   0.0000000e+00   3.0000000e+00
   8.5000000e+01   1.1165000e+00  -1.3050000e+01   0.0000000e+00   0.0000000e+00   2.7400000e-01   3.0000000e-03   0.0000000e+00   0.0000000e+00   3.0000000e+00
   8.6000000e+01   1.0567000e+00  -1.4010000e+01   0.0000000e+00   0.0000000e+00   0.0000000e+00   0.0000000e+00   2.9200000e+00  -2.2000000e-01   3.0000000e+00
   8.7000000e+01   1.0652000e+00  -7.1700000e+00   0.0000000e+00   0.0000000e+00   0.0000000e+00   0.0000000e+00   3.7700000e-01  -4.7000000e-01   3.0000000e+00
   8.8000000e+01   1.1094000e+00  -8.3500000e+00   0.0000000e+00   0.0000000e+00   6.9000000e-01   2.0900000e-01   0.0000000e+00   0.0000000e+00   3.0000000e+00
   8.9000000e+01   1.0660000e+00   3.6800000e+00   6.7300000e+00   1.3639000e+00   6.0000000e-03   2.0000000e-03   6.7800000e+00   7.1100000e-01   2.0000000e+00
   9.0000000e+01   9.5000000e-01  -7.3500000e+00   2.2000000e-01  -3.8700000e-02   4.6000000e-02   1.5000000e-02   2.9500000e-01  -1.9000000e-01   2.0000000e+00
   9.1000000e+01   1.0000000e+00  -9.2800000e+00   6.4000000e-01  -1.5400000e-02   0.0000000e+00   0.0000000e+00   1.9300000e-01  -2.7000000e-01   2.0000000e+00
   9.2000000e+01   9.5610000e-01  -1.2750000e+01   0.0000000e+00   0.0000000e+00   0.0000000e+00   3.1020000e-01   4.3400000e-01  -4.3000000e-01   3.0000000e+00
   9.3000000e+01   1.0000000e+00  -1.9200000e+00   7.0000000e+00   3.7381000e+00   1.0040000e+00   7.3200000e-01   0.0000000e+00   0.0000000e+00   2.0000000e+00
   9.4000000e+01   1.0200000e+00  -7.4000000e-01   3.0000000e+00   1.9050000e-01   1.5400000e-01   7.6000000e-02   1.4000000e+00  -1.4100000e+00   2.0000000e+00
   9.5000000e+01   9.2000000e-01   1.8880000e+01   1.3100000e+00   1.0120000e-01   6.7000000e-02   2.2000000e-02   2.7200000e-01  -5.8000000e-01   2.0000000e+00
   9.6000000e+01   1.0000000e+00  -8.9800000e+00   6.0000000e-01   2.1110000e-01   0.0000000e+00   0.0000000e+00   4.7800000e-01  -4.5000000e-01   2.0000000e+00
   9.7000000e+01   9.6700000e-01  -4.3400000e+00   1.4000000e+00   4.5630000e-01   0.0000000e+00   0.0000000e+00   1.2900000e+00  -1.7700000e+00   2.0000000e+00
   9.8000000e+01   9.7000000e-01   5.1900000e+00   4.2600000e+00  -3.2730000e-01   0.0000000e+00   0.0000000e+00   8.2100000e-01  -1.2100000e+00   2.0000000e+00
   9.9000000e+01   1.0000000e+00   1.1000000e+00   2.0000000e+00  -8.3600000e-02   1.0460000e-01   5.2300000e-02   0.0000000e+00   0.0000000e+00   2.0000000e+00
   1.0000000e+02   1.0140000e+00   7.0000000e-01   1.7000000e+00   5.8720000e-01   0.0000000e+00   0.0000000e+00   5.9100000e-01  -1.0100000e+00   2.0000000e+00
   1.0100000e+02   1.0390000e+00  -6.0900000e+00   3.1090000e+00   1.4866000e+00   1.7800000e-01   4.5000000e-02   6.4700000e-01  -2.3800000e+00   2.0000000e+00
   1.0200000e+02   1.0190000e+00  -4.7600000e+00   2.0400000e+01   4.8890000e+00   3.7600000e-01   9.2000000e-02   4.5800000e+00  -6.1900000e+00   2.0000000e+00
   1.0300000e+02   1.0000000e+00   1.5100000e+00   1.3500000e+00   4.9600000e-02   0.0000000e+00   0.0000000e+00   6.2400000e-01  -4.5000000e-01   2.0000000e+00
   1.0400000e+02   1.0059000e+00   1.3680000e+01   2.0000000e+01   5.0000000e+00   3.0200000e-01   7.6000000e-02   0.0000000e+00   0.0000000e+00   2.0000000e+00
   1.0500000e+02   1.0070000e+00  -2.8000000e+00   1.6200000e+01   3.8834000e+00   9.6000000e-01   1.6740000e+00   2.4200000e-01  -9.9900000e+00   2.0000000e+00
   1.0600000e+02   1.0050000e+00  -2.7500000e+00   1.0800000e+01   2.0936000e+00   6.4000000e-01   1.6000000e-01   3.6900000e-01  -7.1900000e+00   2.0000000e+00
   1.0700000e+02   1.0211000e+00  -1.3570000e+01   0.0000000e+00   0.0000000e+00  -1.7500000e-01  -1.2800000e-01   2.8800000e-01  -2.2000000e-01   3.0000000e+00
   1.0800000e+02   1.0140000e+00  -1.4030000e+01   8.0000000e+00   7.7280000e-01   0.0000000e+00   0.0000000e+00   5.2000000e+00  -2.4400000e+00   2.0000000e+00
   1.0900000e+02   9.1500000e-01  -1.8460000e+01   5.2000000e-01  -1.5550000e-01   0.0000000e+00   0.0000000e+00   8.4500000e-01  -4.7000000e-01   2.0000000e+00
   1.1000000e+02   1.0000000e+00  -1.3100000e+00   7.0000000e+00   5.1984000e+00   1.0040000e+00   7.3200000e-01   0.0000000e+00   0.0000000e+00   2.0000000e+00
   1.1100000e+02   1.0000000e+00   7.9700000e+00   2.0000000e+01   5.6372000e+00   6.0400000e-01   1.1660000e+01   2.3300000e-01  -9.9900000e+00   2.0000000e+00
   1.1200000e+02   1.0370000e+00  -6.2600000e+00   3.0000000e+00   1.4011000e+00   1.8600000e-01   4.6000000e-02   6.4300000e-01  -2.3600000e+00   2.0000000e+00
   1.1300000e+02   9.7800000e-01  -4.3900000e+00   0.0000000e+00   0.0000000e+00   0.0000000e+00   0.0000000e+00   0.0000000e+00   0.0000000e+00   3.0000000e+00
   1.1400000e+02   9.7800000e-01  -4.3900000e+00   0.0000000e+00   0.0000000e+00   0.0000000e+00   0.0000000e+00   0.0000000e+00   0.0000000e+00   3.0000000e+00
   1.1500000e+02   1.0490000e+00  -1.5610000e+01   2.4930000e+01   1.4272000e+00   6.8350000e+00   1.8470000e+00   2.8560000e+01   9.4100000e-02   2.0000000e+00
   1.1600000e+02   1.0430000e+00  -1.6860000e+01   2.7130000e+01   6.3184000e+00   7.9260000e+00   3.1550000e+00   1.9300000e+01  -1.9500000e+00   2.0000000e+00
   1.1700000e+02   1.0300000e+00  -1.5320000e+01   2.6270000e+01   2.5854000e+00   4.8530000e+00   7.1400000e-01   2.4100000e+01  -5.4000000e-01   2.0000000e+00
   1.1800000e+02   1.0100000e+00  -1.7790000e+01   4.2200000e+01   6.6038000e+00   6.5190000e+00   3.2840000e+00   4.7880000e+01  -9.7900000e+00   2.0000000e+00
   1.1900000e+02   1.0130000e+00  -5.9410000e+01   8.9540000e+01   4.7484800e+01   2.0940000e+01   3.7740000e+01   9.9990000e+01  -9.9900000e+00   2.0000000e+00
   1.2000000e+02   1.0331000e+00  -5.1600000e+01   0.0000000e+00   0.0000000e+00  -4.0800000e+00   1.7510000e+00   2.0260000e+01   8.5500000e+00   3.0000000e+00
   1.2100000e+02   1.0460000e+00  -2.0200000e+01   2.9970000e+01  -1.6022000e+00   2.3770000e+00  -1.7300000e-01   3.0600000e+00   1.0550000e+01   2.0000000e+00
   1.2200000e+02   1.0000000e+00  -2.7900000e+00   1.0090000e+01   1.7404000e+00   2.9200000e-01   7.0000000e-02   3.9700000e+00  -6.1000000e-01   2.0000000e+00
   1.2300000e+02   1.0171000e+00  -3.3120000e+01   0.0000000e+00   0.0000000e+00  -8.4000000e-01  -1.9000000e-01   1.1800000e+00   1.4000000e-02   3.0000000e+00
   1.2400000e+02   1.0000000e+00  -1.8900000e+00   3.0050000e+01   5.6919000e+00   9.4100000e-01   7.8030000e+00   7.6600000e+00  -9.9900000e+00   2.0000000e+00
   1.2500000e+02   1.0084000e+00  -3.2590000e+01   0.0000000e+00   0.0000000e+00  -7.1200000e+00  -3.1900000e+00   2.8310000e+01  -7.1000000e-01   3.0000000e+00
   1.2600000e+02   1.0524000e+00  -7.3900000e+01   0.0000000e+00   0.0000000e+00  -3.3300000e+00  -1.6000000e+00   1.6040000e+01   3.4700000e+00   3.0000000e+00
   1.2700000e+02   1.0070000e+00  -3.6400000e+01   0.0000000e+00   0.0000000e+00  -5.4600000e+00  -7.2000000e-01   3.0500000e+00  -5.1000000e-01   3.0000000e+00
   1.2800000e+02   1.0250000e+00  -3.9710000e+01   1.2963000e+02   2.6108200e+01   4.0750000e+01   7.0350000e+00   5.2520000e+01  -4.7200000e+00   2.0000000e+00
   1.2900000e+02   9.8020000e-01  -7.3070000e+01   0.0000000e+00   0.0000000e+00  -4.8200000e+00  -1.2200000e+00   3.8550000e+01   3.8700000e+00   3.0000000e+00
   1.3000000e+02   1.0570000e+00  -5.1870000e+01   5.9370000e+01   1.8349600e+01   4.3280000e+01   9.4430000e+00   3.8300000e+01  -9.1000000e-01   2.0000000e+00
   1.3100000e+02   1.0420000e+00  -2.4320000e+01   2.8300000e+02   7.4730400e+01   2.1840000e+02   4.3200000e+01   5.1450000e+01  -7.8000000e+00   2.0000000e+00
   1.3200000e+02   1.0420000e+00  -7.2400000e+00   3.0950000e+01   6.3342000e+00   4.9190000e+00   1.1020000e+00   1.2390000e+01  -2.2600000e+00   2.0000000e+00
   1.3300000e+02   1.0922000e+00  -1.1600000e+01   0.0000000e+00   0.0000000e+00  -8.3000000e-01  -3.6300000e-01   1.0300000e+00  -5.9000000e-02   3.0000000e+00
   1.3400000e+02   1.0440000e+00  -1.0820000e+01   2.0626000       7.4021400       2.2309000       7.4020000      -1.4100000e+00  -7.8000000e-01   2.0000000e+00
   1.3500000e+02   1.1070000e+00   2.9040000e+01   5.9820000e+01   1.5648400e+01   4.2980000e+01   1.2640000e+01  -9.9900000e+00   8.3500000e+00   2.0000000e+00
   1.3600000e+02   1.0830000e+00   4.3900000e+00   5.1950001       5.0000000e-03   5.2951000       1.3552000e+02  -9.9900000e+00   3.7500000e+00   2.0000000e+00
   1.3700000e+02   1.0640000e+00  -7.2730000e+01   1.2068000       2.4507600       1.2946000       2.6080000       4.9900000e+00  -2.1900000e+00   2.0000000e+00
   1.3800000e+02   1.1138000e+00   1.2010000e+01   0.0000000e+00   0.0000000e+00  -3.6300000e+00  -1.8800000e+00   4.3300000e+00  -8.1000000e-01   3.0000000e+00
   1.3900000e+02   1.0400000e+00  -1.0560000e+01   5.6834002e+02   6.5000000e-03   5.7718000e+02   1.3936000e+02   1.6090000e+01  -9.9900000e+00   2.0000000e+00
   1.4000000e+02   1.0500000e+00  -2.6160000e+01   2.3123000e+02   6.7104700e+01   2.4775000e+02   6.6760000e+01  -2.8900000e+00  -7.7000000e-01   2.0000000e+00
   1.4100000e+02   1.0530000e+00  -9.1200000e+00   3.7911001       5.2000000e-03   3.2799000       1.1361000e+02   5.2120000e+01  -9.9900000e+00   2.0000000e+00
   1.4200000e+02   1.1550000e+00  -1.0730000e+01   2.4449000e+02   5.4961200e+01   1.7737000e+02   3.9340000e+01   4.3230000e+01   2.2100000e+01   2.0000000e+00
   1.4300000e+02   1.0310000e+00  -1.3660000e+01   5.2540000e+01   2.1586300e+01   4.6720000e+01   1.7090000e+01   5.8600000e+00  -9.9900000e+00   2.0000000e+00
   1.4400000e+02   9.9700000e-01  -8.5800000e+00   1.1397000e+02   2.6868500e+01   9.6020000e+01   2.2030000e+01  -4.3600000e+00  -9.9900000e+00   2.0000000e+00
   1.4500000e+02   1.0520000e+00   5.0200000e+00   1.4118620e+02   2.9871500e+01   9.1730000e+01   1.5550000e+01  -9.9900000e+00   4.5700000e+00   1.0000000e+00];


% Line data format
% line: from bus, to bus, resistance(pu), reactance(pu),
%       line charging(pu), tap ratio, phase shift(deg)

line=[ ...
   1.0000000e+00   2.0000000e+00   3.0000000e-05   8.0000000e-04   6.3200000e-02   0.0000000e+00   0.0000000e+00
   1.0000000e+00   2.0000000e+00   3.0000000e-05   8.0000000e-04   6.3200000e-02   0.0000000e+00   0.0000000e+00
   1.0000000e+00   3.0000000e+00   9.0000000e-03   1.7180000e-01   0.0000000e+00   9.3500000e-01   0.0000000e+00
   1.0000000e+00   4.0000000e+00   9.0000000e-03   1.7180000e-01   0.0000000e+00   9.3500000e-01   0.0000000e+00
   1.0000000e+00   5.0000000e+00   8.9000000e-03   1.6970000e-01   0.0000000e+00   9.3500000e-01   0.0000000e+00
   1.0000000e+00   6.0000000e+00   1.9400000e-03   2.0900000e-02   2.3792000e+00   0.0000000e+00   0.0000000e+00
   1.0000000e+00   3.3000000e+01   1.0000000e-04   6.0000000e-03   0.0000000e+00   9.3500000e-01   0.0000000e+00
   1.0000000e+00   9.3000000e+01   2.0000000e-04   1.3800000e-02   0.0000000e+00   1.1036000e+00   0.0000000e+00
   1.0000000e+00   9.3000000e+01   2.0000000e-04   1.3800000e-02   0.0000000e+00   1.1036000e+00   0.0000000e+00
   2.0000000e+00   6.0000000e+00   1.9400000e-03   2.0900000e-02   2.3792000e+00   0.0000000e+00   0.0000000e+00
   2.0000000e+00   1.1300000e+02   0.0000000e+00   1.4800000e-02   0.0000000e+00   1.1052000e+00   0.0000000e+00
   2.0000000e+00   1.1400000e+02   1.8000000e-04   1.4500000e-02   0.0000000e+00   1.1052000e+00   0.0000000e+00
   3.0000000e+00   3.3000000e+01   2.0000000e-04   2.2100000e-02   0.0000000e+00   0.0000000e+00   0.0000000e+00
   4.0000000e+00   3.3000000e+01   2.0000000e-04   2.2100000e-02   0.0000000e+00   0.0000000e+00   0.0000000e+00
   5.0000000e+00   3.3000000e+01   2.0000000e-04   2.1900000e-02   0.0000000e+00   0.0000000e+00   0.0000000e+00
   6.0000000e+00   7.0000000e+00   1.2900000e-03   1.3900000e-02   1.4652000e+00   0.0000000e+00   0.0000000e+00
   6.0000000e+00   9.0000000e+00   1.6000000e-04   1.7000000e-03   1.7520000e-01   0.0000000e+00   0.0000000e+00
   6.0000000e+00   1.0000000e+01   1.6000000e-04   1.7000000e-03   1.7520000e-01   0.0000000e+00   0.0000000e+00
   6.0000000e+00   1.2000000e+01   2.0000000e-04   2.1000000e-03   8.7760000e-01   0.0000000e+00   0.0000000e+00
   6.0000000e+00   1.2000000e+01   2.0000000e-04   2.1000000e-03   8.7760000e-01   0.0000000e+00   0.0000000e+00
   7.0000000e+00   8.0000000e+00   1.1200000e-02   1.5160000e-01   0.0000000e+00   9.7160000e-01   0.0000000e+00
   7.0000000e+00   6.6000000e+01   1.5000000e-04   9.7000000e-03   0.0000000e+00   9.7160000e-01   0.0000000e+00
   7.0000000e+00   1.0400000e+02   3.6000000e-04   1.9000000e-02   0.0000000e+00   1.1052000e+00   0.0000000e+00
   7.0000000e+00   1.0400000e+02   4.1000000e-04   1.7400000e-02   0.0000000e+00   1.1052000e+00   0.0000000e+00
   8.0000000e+00   6.6000000e+01   2.0000000e-04   2.9900000e-02   0.0000000e+00   0.0000000e+00   0.0000000e+00
   8.0000000e+00   6.6000000e+01   2.0000000e-04   2.2100000e-02   0.0000000e+00   0.0000000e+00   0.0000000e+00
   9.0000000e+00   1.1000000e+01   2.1700000e-02   3.0620000e-01   0.0000000e+00   9.1660000e-01   0.0000000e+00
   9.0000000e+00   6.9000000e+01   4.0000000e-04   1.8800000e-02   0.0000000e+00   9.1660000e-01   0.0000000e+00
   1.0000000e+01   3.2000000e+01   2.7000000e-02   3.0410000e-01   0.0000000e+00   9.1660000e-01   0.0000000e+00
   1.0000000e+01   6.9000000e+01   4.0000000e-04   1.8700000e-02   0.0000000e+00   9.1660000e-01   0.0000000e+00
   1.1000000e+01   6.9000000e+01   2.0000000e-04   2.6200000e-02   0.0000000e+00   0.0000000e+00   0.0000000e+00
   1.2000000e+01   1.3000000e+01   2.2300000e-02   3.0990000e-01   0.0000000e+00   9.1660000e-01   0.0000000e+00
   1.2000000e+01   1.3000000e+01   2.3700000e-02   3.1600000e-01   0.0000000e+00   9.1660000e-01   0.0000000e+00
   1.2000000e+01   1.3000000e+01   2.3700000e-02   3.1600000e-01   0.0000000e+00   9.1660000e-01   0.0000000e+00
   1.2000000e+01   1.4000000e+01   9.6000000e-04   9.1000000e-03   8.5560000e-01   0.0000000e+00   0.0000000e+00
   1.2000000e+01   1.4000000e+01   9.6000000e-04   9.1000000e-03   8.5560000e-01   0.0000000e+00   0.0000000e+00
   1.2000000e+01   2.5000000e+01   5.1000000e-04   5.5000000e-03   6.2500000e-01   0.0000000e+00   0.0000000e+00
   1.2000000e+01   2.5000000e+01   5.1000000e-04   5.5000000e-03   6.2500000e-01   0.0000000e+00   0.0000000e+00
   1.2000000e+01   7.2000000e+01   3.0000000e-04   1.8900000e-02   0.0000000e+00   9.1660000e-01   0.0000000e+00
   1.2000000e+01   7.2000000e+01   3.0000000e-04   1.9000000e-02   0.0000000e+00   9.1660000e-01   0.0000000e+00
   1.2000000e+01   7.2000000e+01   3.0000000e-04   1.9000000e-02   0.0000000e+00   9.1660000e-01   0.0000000e+00
   1.3000000e+01   7.2000000e+01   2.0000000e-04   2.6000000e-02   0.0000000e+00   0.0000000e+00   0.0000000e+00
   1.3000000e+01   7.2000000e+01   3.0000000e-04   2.6200000e-02   0.0000000e+00   0.0000000e+00   0.0000000e+00
   1.3000000e+01   7.2000000e+01   2.0000000e-04   2.6000000e-02   0.0000000e+00   0.0000000e+00   0.0000000e+00
   1.4000000e+01   1.5000000e+01   4.1500000e-02   3.9960000e-01   0.0000000e+00   9.1640000e-01   0.0000000e+00
   1.4000000e+01   1.6000000e+01   1.0000000e-02   1.6690000e-01   0.0000000e+00   9.1640000e-01   0.0000000e+00
   1.4000000e+01   1.7000000e+01   3.3900000e-03   3.6700000e-02   3.4582000e+00   0.0000000e+00   0.0000000e+00
   1.4000000e+01   1.7000000e+01   3.5200000e-03   3.6700000e-02   3.4516000e+00   0.0000000e+00   0.0000000e+00
   1.4000000e+01   5.8000000e+01   2.0000000e-04   9.7000000e-03   0.0000000e+00   9.1640000e-01   0.0000000e+00
   1.5000000e+01   5.8000000e+01   2.0000000e-04   2.5500000e-02   0.0000000e+00   0.0000000e+00   0.0000000e+00
   1.6000000e+01   5.8000000e+01   2.0000000e-04   2.2000000e-02   0.0000000e+00   0.0000000e+00   0.0000000e+00
   1.7000000e+01   1.8000000e+01   3.1810000e-01   1.3150000e+00   0.0000000e+00   8.7080000e-01   0.0000000e+00
   1.7000000e+01   1.9000000e+01   0.0000000e+00   8.4700000e-01   0.0000000e+00   8.6340000e-01   0.0000000e+00
   1.7000000e+01   2.0000000e+01   0.0000000e+00   8.6760000e-01   0.0000000e+00   8.6340000e-01   0.0000000e+00
   1.7000000e+01   2.1000000e+01   9.5000000e-03   1.6150000e-01   0.0000000e+00   8.7080000e-01   0.0000000e+00
   1.7000000e+01   2.2000000e+01   2.2800000e-03   2.7600000e-02   2.6204000e+00   0.0000000e+00   0.0000000e+00
   1.7000000e+01   5.9000000e+01   1.0000000e-04   7.1000000e-03   0.0000000e+00   8.7080000e-01   0.0000000e+00
   1.8000000e+01   5.9000000e+01   2.0000000e-04   2.9800000e-02   0.0000000e+00   0.0000000e+00   0.0000000e+00
   1.9000000e+01   5.9000000e+01   0.0000000e+00   6.2900000e-02   0.0000000e+00   0.0000000e+00   0.0000000e+00
   2.0000000e+01   5.9000000e+01   0.0000000e+00   6.3800000e-02   0.0000000e+00   0.0000000e+00   0.0000000e+00
   2.1000000e+01   5.9000000e+01   2.0000000e-04   3.2900000e-02   0.0000000e+00   0.0000000e+00   0.0000000e+00
   2.2000000e+01   2.3000000e+01   0.0000000e+00   3.7870000e-01   0.0000000e+00   9.3220000e-01   0.0000000e+00
   2.2000000e+01   2.4000000e+01   1.7300000e-03   2.0800000e-02   1.9648000e+00   0.0000000e+00   0.0000000e+00
   2.2000000e+01   3.0000000e+01   0.0000000e+00   3.0660000e-01   0.0000000e+00   9.5320000e-01   0.0000000e+00
   2.2000000e+01   7.8000000e+01   0.0000000e+00   2.6800000e-02   0.0000000e+00   9.5320000e-01   0.0000000e+00
   2.2000000e+01   8.3000000e+01   0.0000000e+00   3.4900000e-02   0.0000000e+00   9.3220000e-01   0.0000000e+00
   2.3000000e+01   8.3000000e+01   4.0000000e-04   5.9500000e-02   0.0000000e+00   0.0000000e+00   0.0000000e+00
   2.3000000e+01   8.3000000e+01   3.0000000e-04   5.9700000e-02   0.0000000e+00   0.0000000e+00   0.0000000e+00
   2.4000000e+01   7.6000000e+01   2.0000000e-04   8.8000000e-03   0.0000000e+00   9.8980000e-01   0.0000000e+00
   2.4000000e+01   7.7000000e+01   2.3000000e-03   6.0300000e-02   0.0000000e+00   9.8980000e-01   0.0000000e+00
   2.5000000e+01   2.6000000e+01   6.0000000e-03   1.3750000e-01   0.0000000e+00   9.1660000e-01   0.0000000e+00
   2.5000000e+01   2.7000000e+01   2.3000000e-03   2.6600000e-02   3.0508000e+00   0.0000000e+00   0.0000000e+00
   2.5000000e+01   2.7000000e+01   2.3000000e-03   2.6600000e-02   3.0508000e+00   0.0000000e+00   0.0000000e+00
   2.5000000e+01   3.1000000e+01   8.2000000e-03   1.6480000e-01   0.0000000e+00   9.1660000e-01   0.0000000e+00
   2.5000000e+01   7.3000000e+01   3.0000000e-04   1.7200000e-02   0.0000000e+00   9.1660000e-01   0.0000000e+00
   2.5000000e+01   7.4000000e+01   4.0000000e-04   1.7900000e-02   0.0000000e+00   9.1660000e-01   0.0000000e+00
   2.6000000e+01   7.3000000e+01   3.0000000e-04   2.6700000e-02   0.0000000e+00   0.0000000e+00   0.0000000e+00
   2.7000000e+01   2.8000000e+01   1.1530000e-01   7.4530000e-01   0.0000000e+00   9.0740000e-01   0.0000000e+00
   2.7000000e+01   2.9000000e+01   1.6300000e-02   2.6180000e-01   0.0000000e+00   9.0740000e-01   0.0000000e+00
   2.7000000e+01   7.5000000e+01   1.6000000e-04   1.0000000e-02   0.0000000e+00   9.0740000e-01   0.0000000e+00
   2.8000000e+01   7.5000000e+01   2.0000000e-04   2.9000000e-02   0.0000000e+00   0.0000000e+00   0.0000000e+00
   2.9000000e+01   7.5000000e+01   2.0000000e-04   2.6900000e-02   0.0000000e+00   0.0000000e+00   0.0000000e+00
   3.0000000e+01   7.8000000e+01   0.0000000e+00   3.3500000e-02   0.0000000e+00   0.0000000e+00   0.0000000e+00
   3.1000000e+01   7.4000000e+01   3.0000000e-04   2.7900000e-02   0.0000000e+00   0.0000000e+00   0.0000000e+00
   3.2000000e+01   6.9000000e+01   2.0000000e-04   2.6500000e-02   0.0000000e+00   0.0000000e+00   0.0000000e+00
   3.3000000e+01   3.4000000e+01   6.0000000e-05   9.0000000e-04   6.0000000e-04   0.0000000e+00   0.0000000e+00
   3.3000000e+01   3.5000000e+01   6.0000000e-05   9.0000000e-04   6.0000000e-04   0.0000000e+00   0.0000000e+00
   3.3000000e+01   3.7000000e+01   9.9600000e-03   7.0700000e-02   1.1160000e-01   0.0000000e+00   0.0000000e+00
   3.3000000e+01   3.8000000e+01   9.9500000e-03   6.9300000e-02   1.1100000e-01   0.0000000e+00   0.0000000e+00
   3.3000000e+01   3.9000000e+01   8.5000000e-03   6.9900000e-02   1.0060000e-01   0.0000000e+00   0.0000000e+00
   3.3000000e+01   4.0000000e+01   8.4900000e-03   6.9800000e-02   1.0040000e-01   0.0000000e+00   0.0000000e+00
   3.3000000e+01   4.9000000e+01   5.6000000e-03   4.9300000e-02   7.7800000e-02   0.0000000e+00   0.0000000e+00
   3.3000000e+01   5.0000000e+01   5.6000000e-03   4.9300000e-02   7.7800000e-02   0.0000000e+00   0.0000000e+00
   3.3000000e+01   1.1000000e+02   2.4000000e-04   1.5700000e-02   0.0000000e+00   1.1800000e+00   0.0000000e+00
   3.3000000e+01   1.1000000e+02   2.3000000e-04   1.5600000e-02   0.0000000e+00   1.1800000e+00   0.0000000e+00
   3.4000000e+01   3.6000000e+01   2.5000000e-04   2.2000000e-03   6.0000000e-04   0.0000000e+00   0.0000000e+00
   3.6000000e+01   9.9000000e+01   8.0000000e-04   4.5500000e-02   0.0000000e+00   1.1291000e+00   0.0000000e+00
   3.7000000e+01   8.7000000e+01   9.3000000e-04   4.4200000e-02   0.0000000e+00   1.0500000e+00   0.0000000e+00
   3.7000000e+01   8.8000000e+01   3.1000000e-03   1.6510000e-01   0.0000000e+00   0.0000000e+00   0.0000000e+00
   3.8000000e+01   8.8000000e+01   3.1000000e-03   1.6380000e-01   0.0000000e+00   0.0000000e+00   0.0000000e+00
   3.9000000e+01   4.3000000e+01   6.0200000e-03   4.9500000e-02   7.1200000e-02   0.0000000e+00   0.0000000e+00
   3.9000000e+01   8.4000000e+01   7.2200000e-03   2.7860000e-01   0.0000000e+00   0.0000000e+00   0.0000000e+00
   4.0000000e+01   4.4000000e+01   6.0300000e-03   4.9600000e-02   7.1400000e-02   0.0000000e+00   0.0000000e+00
   4.0000000e+01   8.4000000e+01   7.2900000e-03   2.7560000e-01   0.0000000e+00   0.0000000e+00   0.0000000e+00
   4.1000000e+01   4.2000000e+01   5.0000000e-04   1.5140000e-01   0.0000000e+00   0.0000000e+00   0.0000000e+00
   4.1000000e+01   4.3000000e+01   1.0000000e-05   9.0000000e-04   6.0000000e-04   0.0000000e+00   0.0000000e+00
   4.2000000e+01   4.4000000e+01   1.0000000e-05   9.0000000e-04   6.0000000e-04   0.0000000e+00   0.0000000e+00
   4.3000000e+01   4.6000000e+01   6.1800000e-03   5.0800000e-02   7.3200000e-02   0.0000000e+00   0.0000000e+00
   4.4000000e+01   4.5000000e+01   6.1800000e-03   5.0800000e-02   7.3200000e-02   0.0000000e+00   0.0000000e+00
   4.5000000e+01   6.1000000e+01   4.4500000e-03   3.6600000e-02   5.2600000e-02   0.0000000e+00   0.0000000e+00
   4.5000000e+01   8.5000000e+01   0.0000000e+00   2.6000000e-01   0.0000000e+00   0.0000000e+00   0.0000000e+00
   4.6000000e+01   6.1000000e+01   4.4500000e-03   3.6600000e-02   5.2600000e-02   0.0000000e+00   0.0000000e+00
   4.6000000e+01   8.5000000e+01   0.0000000e+00   2.5920000e-01   0.0000000e+00   0.0000000e+00   0.0000000e+00
   4.7000000e+01   4.8000000e+01   1.0000000e-02   2.3060000e-01   0.0000000e+00   0.0000000e+00   0.0000000e+00
   4.7000000e+01   5.0000000e+01   1.0000000e-05   9.0000000e-04   6.0000000e-04   0.0000000e+00   0.0000000e+00
   4.7000000e+01   8.7000000e+01   8.3100000e-02   4.0100000e-01   0.0000000e+00   0.0000000e+00   0.0000000e+00
   4.8000000e+01   4.9000000e+01   1.0000000e-05   9.0000000e-04   6.0000000e-04   0.0000000e+00   0.0000000e+00
   4.8000000e+01   8.7000000e+01   9.9800000e-02   4.3600000e-01   0.0000000e+00   0.0000000e+00   0.0000000e+00
   4.9000000e+01   5.1000000e+01   8.9800000e-03   7.9000000e-02   1.2480000e-01   0.0000000e+00   0.0000000e+00
   5.0000000e+01   5.1000000e+01   8.9800000e-03   7.9000000e-02   1.2480000e-01   0.0000000e+00   0.0000000e+00
   5.1000000e+01   5.2000000e+01   2.9000000e-03   2.7900000e-02   4.6600000e-02   0.0000000e+00   0.0000000e+00
   5.1000000e+01   5.3000000e+01   2.9000000e-03   2.7900000e-02   4.6600000e-02   0.0000000e+00   0.0000000e+00
   5.1000000e+01   5.6000000e+01   7.5900000e-03   4.8300000e-02   7.1200000e-02   0.0000000e+00   0.0000000e+00
   5.1000000e+01   5.7000000e+01   7.5900000e-03   4.8300000e-02   7.1200000e-02   0.0000000e+00   0.0000000e+00
   5.2000000e+01   5.3000000e+01   6.7000000e-03   3.9110000e-01   0.0000000e+00   0.0000000e+00   0.0000000e+00
   5.2000000e+01   5.4000000e+01   4.7000000e-03   2.9300000e-02   4.6200000e-02   0.0000000e+00   0.0000000e+00
   5.3000000e+01   5.5000000e+01   4.7000000e-03   2.9300000e-02   4.6200000e-02   0.0000000e+00   0.0000000e+00
   5.4000000e+01   5.5000000e+01   5.5300000e-02   9.2890000e-01   0.0000000e+00   0.0000000e+00   0.0000000e+00
   5.4000000e+01   6.1000000e+01   1.4100000e-03   8.7000000e-03   1.3800000e-02   0.0000000e+00   0.0000000e+00
   5.5000000e+01   6.1000000e+01   1.4100000e-03   8.7000000e-03   1.3800000e-02   0.0000000e+00   0.0000000e+00
   5.6000000e+01   5.7000000e+01   9.0000000e-03   3.8950000e-01   0.0000000e+00   0.0000000e+00   0.0000000e+00
   5.6000000e+01   5.8000000e+01   1.9000000e-03   1.2000000e-02   1.7800000e-02   0.0000000e+00   0.0000000e+00
   5.7000000e+01   5.8000000e+01   1.9000000e-03   1.2000000e-02   1.7800000e-02   0.0000000e+00   0.0000000e+00
   5.8000000e+01   5.9000000e+01   6.6740000e-01   2.2175000e+00   0.0000000e+00   0.0000000e+00   0.0000000e+00
   5.8000000e+01   7.2000000e+01   3.0200000e-02   2.3640000e-01   0.0000000e+00   0.0000000e+00   0.0000000e+00
   5.8000000e+01   8.7000000e+01   8.6300000e-02   3.9060000e-01   0.0000000e+00   0.0000000e+00   0.0000000e+00
   5.8000000e+01   9.8000000e+01   1.3100000e-02   1.7650000e-01   0.0000000e+00   0.0000000e+00   0.0000000e+00
   5.8000000e+01   1.0000000e+02   1.1930000e-01   1.2690000e+00   0.0000000e+00   0.0000000e+00   0.0000000e+00
   5.8000000e+01   1.0300000e+02   8.4160000e-01   5.5383000e+00   0.0000000e+00   0.0000000e+00   0.0000000e+00
   5.9000000e+01   6.0000000e+01   1.8030000e-01   5.9659000e+00   0.0000000e+00   0.0000000e+00   0.0000000e+00
   5.9000000e+01   7.2000000e+01   8.6130000e-01   3.0485000e+00   0.0000000e+00   0.0000000e+00   0.0000000e+00
   5.9000000e+01   7.9000000e+01   9.9000000e-03   2.6440000e-01   0.0000000e+00   0.0000000e+00   0.0000000e+00
   5.9000000e+01   8.0000000e+01   2.8760000e-01   2.3898000e+00   0.0000000e+00   0.0000000e+00   0.0000000e+00
   5.9000000e+01   8.9000000e+01   3.4210000e-01   9.0571000e+00   0.0000000e+00   0.0000000e+00   0.0000000e+00
   5.9000000e+01   9.2000000e+01   7.0000000e-03   5.6780000e-01   0.0000000e+00   0.0000000e+00   0.0000000e+00
   5.9000000e+01   9.4000000e+01   7.0410000e-01   5.9885000e+00   0.0000000e+00   0.0000000e+00   0.0000000e+00
   5.9000000e+01   9.8000000e+01   1.0600000e-01   5.8450000e-01   0.0000000e+00   0.0000000e+00   0.0000000e+00
   5.9000000e+01   1.0000000e+02   1.8300000e-02   2.0160000e-01   0.0000000e+00   0.0000000e+00   0.0000000e+00
   5.9000000e+01   1.0300000e+02   3.6800000e-02   3.3410000e-01   0.0000000e+00   0.0000000e+00   0.0000000e+00
   5.9000000e+01   1.0700000e+02   3.7200000e-02   8.8340000e-01   0.0000000e+00   0.0000000e+00   0.0000000e+00
   6.0000000e+01   1.3500000e+02   1.8310000e+00   9.7964000e+00   0.0000000e+00   0.0000000e+00   0.0000000e+00
   6.0000000e+01   7.9000000e+01   3.7500000e-02   1.1068000e+00   0.0000000e+00   0.0000000e+00   0.0000000e+00
   6.0000000e+01   8.0000000e+01   6.5500000e-02   2.6441000e+00   0.0000000e+00   0.0000000e+00   0.0000000e+00
   6.0000000e+01   9.0000000e+01   2.0100000e-02   1.5135000e+00   0.0000000e+00   0.0000000e+00   0.0000000e+00
   6.0000000e+01   9.2000000e+01   2.6400000e-01   3.7139000e+00   0.0000000e+00   0.0000000e+00   0.0000000e+00
   6.0000000e+01   9.4000000e+01   1.2000000e-03   7.7500000e-02   0.0000000e+00   0.0000000e+00   0.0000000e+00
   6.0000000e+01   9.5000000e+01   8.5500000e-02   9.9260000e-01   0.0000000e+00   0.0000000e+00   0.0000000e+00
   6.0000000e+01   1.3800000e+02   3.6390000e-01   1.7936000e+00   0.0000000e+00   0.0000000e+00   0.0000000e+00
   6.1000000e+01   6.2000000e+01   3.6200000e-02   2.6080000e-01   0.0000000e+00   1.0500000e+00   0.0000000e+00
   6.1000000e+01   6.2000000e+01   4.7200000e-02   5.4380000e-01   0.0000000e+00   1.0500000e+00   0.0000000e+00
   6.1000000e+01   6.3000000e+01   8.1200000e-03   7.8200000e-02   1.3180000e-01   0.0000000e+00   0.0000000e+00
   6.1000000e+01   6.3000000e+01   8.1200000e-03   7.8200000e-02   1.3180000e-01   0.0000000e+00   0.0000000e+00
   6.1000000e+01   6.4000000e+01   2.4200000e-03   3.1800000e-02   5.6800000e-02   0.0000000e+00   0.0000000e+00
   6.1000000e+01   6.5000000e+01   2.4200000e-03   3.1800000e-02   5.6800000e-02   0.0000000e+00   0.0000000e+00
   6.1000000e+01   8.6000000e+01   1.3200000e-03   3.2000000e-02   0.0000000e+00   1.0500000e+00   0.0000000e+00
   6.1000000e+01   8.6000000e+01   1.1000000e-03   3.7000000e-02   0.0000000e+00   1.0500000e+00   0.0000000e+00
   6.1000000e+01   8.6000000e+01   1.1000000e-03   3.7000000e-02   0.0000000e+00   1.0500000e+00   0.0000000e+00
   6.2000000e+01   8.6000000e+01   3.6000000e-03   5.0100000e-02   0.0000000e+00   0.0000000e+00   0.0000000e+00
   6.2000000e+01   8.6000000e+01   1.3000000e-03   8.3800000e-02   0.0000000e+00   0.0000000e+00   0.0000000e+00
   6.3000000e+01   6.4000000e+01   1.4700000e-02   2.8250000e-01   0.0000000e+00   0.0000000e+00   0.0000000e+00
   6.3000000e+01   6.5000000e+01   1.4700000e-02   2.8130000e-01   0.0000000e+00   0.0000000e+00   0.0000000e+00
   6.3000000e+01   6.6000000e+01   5.6000000e-03   9.0000000e-02   0.0000000e+00   0.0000000e+00   0.0000000e+00
   6.3000000e+01   6.7000000e+01   3.2100000e-02   2.7850000e-01   0.0000000e+00   0.0000000e+00   0.0000000e+00
   6.3000000e+01   6.9000000e+01   1.0700000e-02   1.5710000e-01   0.0000000e+00   0.0000000e+00   0.0000000e+00
   6.3000000e+01   1.0200000e+02   1.0600000e-02   1.5830000e-01   0.0000000e+00   0.0000000e+00   0.0000000e+00
   6.3000000e+01   1.0200000e+02   1.0600000e-02   1.5760000e-01   0.0000000e+00   0.0000000e+00   0.0000000e+00
   6.3000000e+01   1.0200000e+02   1.0700000e-02   1.6040000e-01   0.0000000e+00   0.0000000e+00   0.0000000e+00
   6.3000000e+01   1.0200000e+02   1.0400000e-02   1.5420000e-01   0.0000000e+00   0.0000000e+00   0.0000000e+00
   6.3000000e+01   1.1600000e+02   3.8970000e-01   6.8588000e+00   0.0000000e+00   0.0000000e+00   0.0000000e+00
   6.3000000e+01   1.1700000e+02   3.0000000e-03   5.6000000e-02   0.0000000e+00   0.0000000e+00   0.0000000e+00
   6.3000000e+01   1.1800000e+02   1.2500000e-02   2.4250000e-01   0.0000000e+00   0.0000000e+00   0.0000000e+00
   6.3000000e+01   1.2400000e+02   1.2650000e-01   2.0220000e+00   0.0000000e+00   0.0000000e+00   0.0000000e+00
   6.4000000e+01   6.5000000e+01   1.3000000e-03   1.6740000e-01   0.0000000e+00   0.0000000e+00   0.0000000e+00
   6.4000000e+01   6.6000000e+01   3.9000000e-03   6.8400000e-02   0.0000000e+00   0.0000000e+00   0.0000000e+00
   6.4000000e+01   6.7000000e+01   2.3300000e-02   2.1200000e-01   0.0000000e+00   0.0000000e+00   0.0000000e+00
   6.4000000e+01   6.9000000e+01   7.5000000e-03   1.1960000e-01   0.0000000e+00   0.0000000e+00   0.0000000e+00
   6.4000000e+01   9.7000000e+01   4.3360000e-01   8.2923000e+00   0.0000000e+00   0.0000000e+00   0.0000000e+00
   6.4000000e+01   1.2400000e+02   1.0410000e-01   1.5375000e+00   0.0000000e+00   0.0000000e+00   0.0000000e+00
   6.5000000e+01   6.6000000e+01   3.9000000e-03   6.8200000e-02   0.0000000e+00   0.0000000e+00   0.0000000e+00
   6.5000000e+01   6.7000000e+01   2.3300000e-02   2.1110000e-01   0.0000000e+00   0.0000000e+00   0.0000000e+00
   6.5000000e+01   6.9000000e+01   7.5000000e-03   1.1910000e-01   0.0000000e+00   0.0000000e+00   0.0000000e+00
   6.5000000e+01   9.7000000e+01   4.2920000e-01   8.2582000e+00   0.0000000e+00   0.0000000e+00   0.0000000e+00
   6.5000000e+01   1.2400000e+02   1.0320000e-01   1.5312000e+00   0.0000000e+00   0.0000000e+00   0.0000000e+00
   6.6000000e+01   6.7000000e+01   8.1000000e-03   6.7500000e-02   0.0000000e+00   0.0000000e+00   0.0000000e+00
   6.6000000e+01   6.8000000e+01   2.4730000e+00   2.4720000e+00   0.0000000e+00   0.0000000e+00   0.0000000e+00
   6.6000000e+01   6.9000000e+01   2.8000000e-03   3.8100000e-02   0.0000000e+00   0.0000000e+00   0.0000000e+00
   6.6000000e+01   9.7000000e+01   1.1190000e-01   2.6432000e+00   0.0000000e+00   0.0000000e+00   0.0000000e+00
   6.6000000e+01   1.1100000e+02   0.0000000e+00   2.6400000e-02   0.0000000e+00   0.0000000e+00   0.0000000e+00
   6.6000000e+01   1.1100000e+02   5.7000000e-04   2.6600000e-02   0.0000000e+00   0.0000000e+00   0.0000000e+00
   6.6000000e+01   1.1100000e+02   0.0000000e+00   2.7300000e-02   0.0000000e+00   0.0000000e+00   0.0000000e+00
...






% Machine data format
%        1   machine number,
%        2  bus number,
%        3  base mva,
%        4  leakage reactance x_1(pu),
%        5  resistance r_a(pu),
%        6  d-axis sychronous reactance x_d(pu),
%        7  d-axis transient reactance x'_d(pu),
%        8  d-axis subtransient reactance x"_d(pu),
%        9  d-axis open-circuit time constant T'_do(sec),
%       10  d-axis open-circuit subtransient time constant
%                T"_do(sec),
%       11  q-axis sychronous reactance x_q(pu),
%       12  q-axis transient reactance x'_q(pu),
%       13  q-axis subtransient reactance x"_q(pu),
%       14  q-axis open-circuit time constant T'_qo(sec),
%       15  q-axis open circuit subtransient time constant
%                T"_qo(sec),
%       16  inertia constant H(sec),
%       17  damping coefficient d_o(pu),
%       18  dampling coefficient d_1(pu),
%       19  bus number
%       20  saturation factor s(1.0)
%       21  saturation factor s(1.2)
%       22  active power fraction
%       23  reactive power fraction
mac_con = [ ...
1  93  889    0.22  0.00339  1.75 0.427  0.265 8.5   0.037...
                             1.72 0.65   0.265 1.24  0.074...
                             6.47 0.00   0.0   93    0  0  0  0; %0.0654  0.5743 0 0;%bru17713
2  104 2352   0.19  0.0033   2.39 0.287  0.215 10.   0.03...
                             2.31 0.34   0.215 1.5   0.035...
                             3.14 0.00   0.0   104   0  0  0  0; %0.21    0.55   0 0;%nan18205
3  105 2551.2 0.21  0.00398  2.18 0.396  0.26  6.615 0.032...
                             2.08 0.60   0.26  1.5   0.06...
                             4.43 0.00   0.0   105   0  0  0  0; %0.13    0.4096 0 0;%pic18252
4  106 1275.6 0.21  0.00398  2.18 0.396  0.26  6.615 0.032...
                             2.08 0.60   0.26  1.5   0.06...
                             4.43 0.00   0.0   106   0  0  0  0; %0.13    0.4096 0 0;%pic18263
5  110 889    0.22  0.00339  1.75 0.427  0.265 8.5   0.037...
                             1.72 0.65   0.265 1.24  0.074...
                             6.47 0.00   0.0   110   0  0  0  0; % 0.0654 0.5743 0 0;%bru18705
6  111 2352   0.19  0.0033   2.39 0.287  0.215 10.   0.03...
                             2.31 0.34   0.215 1.5   0.035...
                             3.14 0.00   0.0   111   0  0  0  0; %0.21    0.55   0 0;%nan18563
7  60  100    0.00  0.000    0.   0.4769  0 0  0 0 0 0 0 0    1.41   1.41  0.0  60 0 0 0 0;%lak187a
8  67  100    0.00  0.000    0.   0.0213  0 0  0 0 0 0 0 0   52.1796 52.18 0.0  67 0 0 0 0;%bec 287a
9  79  100    0.00  0.000    0.   0.1292  0 0  0 0 0 0 0 0    6.65   6.65  0.0  79 0 0 0 0;%mck1032
10 80  100    0.00  0.000    0.   0.6648  0 0  0 0 0 0 0 0    1.2857 1.29  0.0  80 0 0 0 0;%hig1036
11 82  100    0.00  0.000    0.   0.5291  0 0  0 0 0 0 0 0    2.115  2.12  0.0  82 0 0 0 0;%chf1262
12 89  100    0.00  0.000    0.   0.0585  0 0  0 0 0 0 0 0   20.5602 20.56 0.0  89 0 0 0 0;%can1751T
13 90  100    0.00  0.000    0.   1.6     0 0  0 0 0 0 0 0    0.7628 0.76  0.0  90 0 0 0 0;%agu1752T
14 91  100    0.00  0.000    0.   0.3718  0 0  0 0 0 0 0 0    1.6848 1.68  0.0  91 0 0 0 0;%arn1754T
15 94  100    0.00  0.000    0.   0.0839  0 0  0 0 0 0 0 0   17.3424 34.69  0.0  94 0 0 0 0;%cam17761
16 95  100    0.00  0.000    0.   0.1619  0 0  0 0 0 0 0 0    5.4662 5.46  0.0  95 0 0 0 0;%car1777T
17 96  100    0.00  0.000    0.   0.4824  0 0  0 0 0 0 0 0    2.1216 2.12  0.0  96 0 0 0 0;%che17801
18 97  100    0.00  0.000    0.   0.2125  0 0  0 0 0 0 0 0    5.4912 5.49  0.0  97 0 0 0 0;%dec1728T
19 98  100    0.00  0.000    0.   0.0795  0 0  0 0 0 0 0 0   13.96   13.16 0.0  98 0 0 0 0;%des17831
20 99  100    0.00  0.000    0.   0.1146  0 0  0 0 0 0 0 0   17.108  17.1  0.0  99 0 0 0 0;%dou1793T
21 100 100    0.00  0.000    0.   0.1386  0 0  0 0 0 0 0 0    7.56   7.56  0.0 100 0 0 0 0;%hol17961
22 101 100    0.00  0.000    0.   0.0924  0 0  0 0 0 0 0 0   12.2844 12.3  0.0 101 0 0 0 0;%lak18068
23 102 2222   0.16  0.00234  1.81 0.30    0.217 7.8  0.022...
                             1.76 0.61    0.217 0.90 0.074...
                             3.53 0.00   0.0   102  0  0  0  0; %0.1269  0.4104 0 0;%lam18071
24 103 100    0.00  0.000    0.   0.1063  0 0  0 0 0 0 0 0    8.16   8.16  0.0 103 0 0 0 0;%lon1815T
25 108 100    0.00  0.000    0.   0.0248  0 0  0 0 0 0 0 0   30.432  30.4  0.0 108 0 0 0 0;%sau18311
26 109 100    0.00  0.000    0.   0.2029  0 0  0 0 0 0 0 0    2.6622 2.66  0.0 109 0 0 0 0;%stw18435
27 112 100    0.00  0.000    0.   0.0924  0 0  0 0 0 0 0 0   12.2844 12.3  0.0 112 0 0 0 0;%lak18637
28 115 100    0.00  0.000    0.   0.0024  0 0  0 0 0 0 0 0   97.33   97.3  0.0 115 0 0 0 0;%18c2007e
29 116 100    0.00  0.000    0.   0.0022  0 0  0 0 0 0 0 0  105.50  105.5  0.0 116 0 0 0 0;%18h20160
30 117 100    0.00  0.000    0.   0.0017  0 0  0 0 0 0 0 0  102.16  102.2  0.0 117 0 0 0 0%19b2051r
31 118 100    0.00  0.000    0.   0.0014  0 0  0 0 0 0 0 0  162.74  162.5  0.0 118 0 0 0 0;%19m20792
32 119 100    0.00  0.000    0.   0.0002  0 0  0 0 0 0 0 0  348.22  348.2  0.0 119 0 0 0 0;%ak2152
33 121 100    0.00  0.000    0.   0.0017  0 0  0 0 0 0 0 0  116.54  116.5  0.0 121 0 0 0 0;%cha2184g
34 122 100    0.00  0.000    0.   0.0089  0 0  0 0 0 0 0 0  39.24    39.2  0.0 122 0 0 0 0;%dun22033
35 124 100    0.00  0.000    0.   0.0017  0 0  0 0 0 0 0 0  116.86  116.9  0.0 124 0 0 0 0;%hnt2264g
36 128 100    0.00  0.000    0.   0.0001  0 0  0 0 0 0 0 0  503.87  503.9  0.0 128 0 0 0 0;%br.24593
37 130 100    0.00  0.000    0.   0.0010  0 0  0 0 0 0 0 0  230.90  230.9  0.0 130 0 0 0 0;%ber26011
38 131 100    0.00  0.000    0.   0.0001  0 0  0 0 0 0 0 0 1101.72 1101.7  0.0 131 0 0 0 0;%clv2609f
39 132 100    0.00  0.000    0.   0.0016  0 0  0 0 0 0 0 0  120.35  120.4  0.0 132 0 0 0 0;%eri2616
40 134 100    0.00  0.000    0.   0.3e-4  0 0  0 0 0 0 0 0  802.12  802.1  0.0 134 0 0 0 0;%all2651
41 135 100    0.00  0.000    0.   0.0008  0 0  0 0 0 0 0 0  232.63  232.6  0.0 135 0 0 0 0;%bd 26524
42 136 100    0.00  0.000    0.   0.1e-4  0 0  0 0 0 0 0 0 2018.17 5000.2  0.0 136 0 0 0 0;%cal26541
43 137 100    0.00  0.000    0.   0.0004  0 0  0 0 0 0 0 0  469.32  469.3  0.0 137 0 0 0 0;%cap2655
44 139 100    0.00  0.000    0.   0.0001  0 0  0 0 0 0 0 0 2210.20 2210.2  0.0 139 0 0 0 0;%spp2666n
45 140 100    0.00  0.000    0.   0.0003  0 0  0 0 0 0 0 0  889.19  889.2  0.0 140 0 0 0 0;%spp2669n
46 141 100    0.00  0.000    0.   0.0001  0 0  0 0 0 0 0 0 1474.22 1474.2  0.0 141 0 0 0 0;%ver2674n
47 142 100    0.00  0.000    0.   0.0003  0 0  0 0 0 0 0 0  950.80  950.8  0.0 142 0 0 0 0;%01a2679r
48 143 100    0.00  0.000    0.   0.0023  0 0  0 0 0 0 0 0  204.30  204.3  0.0 143 0 0 0 0;%03d2699e
49 144 100    0.00  0.000    0.   0.0004  0 0  0 0 0 0 0 0  443.22  443.2  0.0 144 0 0 0 0;%3br2719
50 145 100    0.00  0.000    0.   0.0018  0 0  0 0 0 0 0 0  518.08  518.1  0.0 145 0 0 0 0];%8b02739

exc_con = [...
0  1  0.02  185.0  0.0  0.0   0.0   8.89  -2.0  0     0     0     0        0      0       0   0;
0  2  0.015 253.0  0.0  0.0   0.0   8.86  -7.0  0     0     0     0        0      0       0   0;
1  3  0.02  25.0   0.0  0.046 0.90  8.7   0.0  .962  .380  5.549  0.0441  7.3997  0.2142  0  1.0;
1  4  0.02  25.0   0.0  0.046 0.90  8.7   0.0  .962  .380  5.549  0.0441  7.3997  0.2142  0  1.0;
0  5  0.02  185.0  0.0  0.0   0.0   8.89  -2.0  0     0     0     0        0      0       0   0;
0  6  0.015 253.0  0.0  0.0   0.0   8.86  -7.0  0     0     0     0        0      0       0   0;
0 23  0.015 212.0  0.0  0.0   0.0   7.77  -6.86 0     0     0     0        0      0       0   0];

pss_con = [...
1  1  20.7  1.5   0.8854  1.0   0.0638  0.013  0.2   -0.066;
1  2  16.5  1.65  0.062   0.02  0.062   0.02   0.2   -0.066;
1  5  20.7  1.5   0.8854  1.0   0.0638  0.013  0.2   -0.066;
1  6  16.5  1.65  0.062   0.02  0.062   0.02   0.2   -0.066;
1 23  16.02 1.41  0.033   0.154 0       0      0.2   -0.2];

sw_con = [...
0    0    0    0    0    0    0.01;%sets intitial time step
0.1  6    7  0    0    0    0.005; %apply three phase fault at bus 6, on line 3-7
0.15 0    0    0    0    0    0.005556; %clear fault at bus 6
0.20 0    0    0    0    0    0.005556; %clear remote end bus 7
0.50 0    0    0    0    0    0.01; % increase time step 
1.0  0    0    0    0    0    0.02; % increase time step
3.0  0    0    0    0    0    0]; % end simulation

% line monitor vector
% contains the line numbers of the line for which c matrices 
% are to be calculated in svm_mgen
lmon_con = [ 1 2 3 4 5 6 7]';
